<?xml version="1.0" encoding="UTF-8"?>

<!-- generated on 2025-03-11 17:44:39 by Eclipse SUMO netedit Version 1.22.0
<neteditConfiguration xmlns:xsi="http://www.w3.org/2001/XMLSchema-instance" xsi:noNamespaceSchemaLocation="http://sumo.dlr.de/xsd/neteditConfiguration.xsd">

    <input>
        <additional-files value="C:\Users\royzheng\FYP Sumo\Sample 1\busstop.xml"/>
        <sumo-net-file value="C:\Users\royzheng\FYP Sumo\Sample 1\net.net.xml"/>
    </input>

    <output>
        <output-file value="C:\Users\royzheng\FYP Sumo\Sample 1\net.net.xml"/>
    </output>

    <processing>
        <geometry.min-radius.fix.railways value="false"/>
        <geometry.max-grade.fix value="false"/>
        <offset.disable-normalization value="true"/>
        <lefthand value="1"/>
    </processing>

    <junctions>
        <no-turnarounds value="true"/>
        <junctions.corner-detail value="5"/>
        <junctions.limit-turn-speed value="5.50"/>
        <rectangular-lane-cut value="0"/>
    </junctions>

    <pedestrian>
        <walkingareas value="0"/>
    </pedestrian>

</neteditConfiguration>
-->

<net version="1.20" junctionCornerDetail="5" lefthand="true" limitTurnSpeed="5.50" xmlns:xsi="http://www.w3.org/2001/XMLSchema-instance" xsi:noNamespaceSchemaLocation="http://sumo.dlr.de/xsd/net_file.xsd">

    <location netOffset="0.00,0.00" convBoundary="-255.16,88.08,1100.95,846.66" origBoundary="-10000000000.00,-10000000000.00,10000000000.00,10000000000.00" projParameter="!"/>

    <edge id=":clusterJ28_J29_clusterJ0_J17_J19_0" function="internal">
        <lane id=":clusterJ28_J29_clusterJ0_J17_J19_0_0" index="0" speed="7.19" length="9.96" shape="-74.49,271.82 -77.30,271.10 -79.32,269.81 -80.54,267.96 -80.97,265.55"/>
    </edge>
    <edge id=":clusterJ28_J29_clusterJ0_J17_J19_1" function="internal">
        <lane id=":clusterJ28_J29_clusterJ0_J17_J19_1_0" index="0" speed="13.89" length="15.12" shape="-74.49,271.82 -78.24,271.52 -82.02,271.51 -85.82,271.64 -89.59,271.71"/>
    </edge>
    <edge id=":clusterJ28_J29_clusterJ0_J17_J19_2" function="internal">
        <lane id=":clusterJ28_J29_clusterJ0_J17_J19_2_0" index="0" speed="7.77" length="5.99" shape="-74.49,271.82 -78.56,271.94 -80.21,272.93"/>
    </edge>
    <edge id=":clusterJ28_J29_clusterJ0_J17_J19_12" function="internal">
        <lane id=":clusterJ28_J29_clusterJ0_J17_J19_12_0" index="0" speed="7.77" length="9.60" shape="-80.21,272.93 -81.33,273.60 -82.80,276.81 -82.98,281.57"/>
    </edge>
    <edge id=":clusterJ28_J29_clusterJ0_J17_J19_3" function="internal">
        <lane id=":clusterJ28_J29_clusterJ0_J17_J19_3_0" index="0" speed="6.07" length="9.06" shape="-80.53,281.36 -80.38,278.79 -79.43,277.08 -77.67,276.22 -75.10,276.20"/>
    </edge>
    <edge id=":clusterJ28_J29_clusterJ0_J17_J19_4" function="internal">
        <lane id=":clusterJ28_J29_clusterJ0_J17_J19_4_0" index="0" speed="13.89" length="15.81" shape="-80.53,281.36 -80.97,265.55"/>
    </edge>
    <edge id=":clusterJ28_J29_clusterJ0_J17_J19_5" function="internal">
        <lane id=":clusterJ28_J29_clusterJ0_J17_J19_5_0" index="0" speed="8.44" length="6.93" shape="-80.53,281.36 -81.41,277.15 -82.76,274.89"/>
    </edge>
    <edge id=":clusterJ28_J29_clusterJ0_J17_J19_13" function="internal">
        <lane id=":clusterJ28_J29_clusterJ0_J17_J19_13_0" index="0" speed="8.44" length="7.86" shape="-82.76,274.89 -83.21,274.14 -85.94,272.32 -89.59,271.71"/>
    </edge>
    <edge id=":clusterJ28_J29_clusterJ0_J17_J19_6" function="internal">
        <lane id=":clusterJ28_J29_clusterJ0_J17_J19_6_0" index="0" speed="7.20" length="10.51" shape="-89.60,274.91 -86.92,275.33 -84.92,276.59 -83.60,278.66 -82.98,281.57"/>
    </edge>
    <edge id=":clusterJ28_J29_clusterJ0_J17_J19_7" function="internal">
        <lane id=":clusterJ28_J29_clusterJ0_J17_J19_7_0" index="0" speed="13.89" length="14.57" shape="-89.60,274.91 -85.92,275.02 -82.33,275.31 -78.75,275.71 -75.10,276.20"/>
    </edge>
    <edge id=":clusterJ28_J29_clusterJ0_J17_J19_8" function="internal">
        <lane id=":clusterJ28_J29_clusterJ0_J17_J19_8_0" index="0" speed="8.05" length="4.11" shape="-89.60,274.91 -85.79,274.34 -85.58,274.20"/>
    </edge>
    <edge id=":clusterJ28_J29_clusterJ0_J17_J19_14" function="internal">
        <lane id=":clusterJ28_J29_clusterJ0_J17_J19_14_0" index="0" speed="8.05" length="10.45" shape="-85.58,274.20 -83.08,272.59 -81.47,269.66 -80.97,265.55"/>
    </edge>
    <edge id=":clusterJ28_J29_clusterJ0_J17_J19_9" function="internal">
        <lane id=":clusterJ28_J29_clusterJ0_J17_J19_9_0" index="0" speed="6.61" length="9.45" shape="-84.04,265.59 -84.36,268.27 -85.39,270.19 -87.13,271.33 -89.59,271.71"/>
    </edge>
    <edge id=":clusterJ28_J29_clusterJ0_J17_J19_10" function="internal">
        <lane id=":clusterJ28_J29_clusterJ0_J17_J19_10_0" index="0" speed="13.89" length="16.02" shape="-84.04,265.59 -82.98,281.57"/>
    </edge>
    <edge id=":clusterJ28_J29_clusterJ0_J17_J19_11" function="internal">
        <lane id=":clusterJ28_J29_clusterJ0_J17_J19_11_0" index="0" speed="8.79" length="4.23" shape="-84.04,265.59 -83.44,269.77"/>
    </edge>
    <edge id=":clusterJ28_J29_clusterJ0_J17_J19_15" function="internal">
        <lane id=":clusterJ28_J29_clusterJ0_J17_J19_15_0" index="0" speed="8.79" length="11.13" shape="-83.44,269.77 -81.75,272.94 -78.97,275.08 -75.10,276.20"/>
    </edge>
    <edge id=":clusterJ34_J35_J36_J37_0" function="internal">
        <lane id=":clusterJ34_J35_J36_J37_0_0" index="0" speed="8.03" length="11.50" shape="209.73,311.54 206.67,310.48 204.45,308.83 203.07,306.59 202.54,303.77"/>
    </edge>
    <edge id=":clusterJ34_J35_J36_J37_1" function="internal">
        <lane id=":clusterJ34_J35_J36_J37_1_0" index="0" speed="13.89" length="16.48" shape="209.73,311.54 193.45,308.99"/>
    </edge>
    <edge id=":clusterJ34_J35_J36_J37_2" function="internal">
        <lane id=":clusterJ34_J35_J36_J37_2_0" index="0" speed="8.13" length="6.04" shape="209.73,311.54 206.46,311.50 204.02,312.83"/>
    </edge>
    <edge id=":clusterJ34_J35_J36_J37_12" function="internal">
        <lane id=":clusterJ34_J35_J36_J37_12_0" index="0" speed="8.13" length="8.58" shape="204.02,312.83 203.78,312.96 201.70,315.91 200.22,320.37"/>
    </edge>
    <edge id=":clusterJ34_J35_J36_J37_3" function="internal">
        <lane id=":clusterJ34_J35_J36_J37_3_0" index="0" speed="6.52" length="9.03" shape="201.97,320.77 202.84,318.46 204.25,316.98 206.18,316.32 208.65,316.50"/>
    </edge>
    <edge id=":clusterJ34_J35_J36_J37_4" function="internal">
        <lane id=":clusterJ34_J35_J36_J37_4_0" index="0" speed="13.89" length="17.04" shape="201.97,320.77 202.54,316.75 202.73,312.31 202.68,307.85 202.54,303.77"/>
    </edge>
    <edge id=":clusterJ34_J35_J36_J37_5" function="internal">
        <lane id=":clusterJ34_J35_J36_J37_5_0" index="0" speed="8.18" length="1.30" shape="201.97,320.77 201.90,319.47"/>
    </edge>
    <edge id=":clusterJ34_J35_J36_J37_13" function="internal">
        <lane id=":clusterJ34_J35_J36_J37_13_0" index="0" speed="8.18" length="14.50" shape="201.90,319.47 201.76,317.02 199.90,313.36 196.95,310.45 193.45,308.99"/>
    </edge>
    <edge id=":clusterJ34_J35_J36_J37_6" function="internal">
        <lane id=":clusterJ34_J35_J36_J37_6_0" index="0" speed="7.10" length="11.68" shape="192.84,313.37 196.56,314.26 199.03,315.72 200.25,317.76 200.22,320.37"/>
    </edge>
    <edge id=":clusterJ34_J35_J36_J37_7" function="internal">
        <lane id=":clusterJ34_J35_J36_J37_7_0" index="0" speed="13.89" length="16.12" shape="192.84,313.37 208.65,316.50"/>
    </edge>
    <edge id=":clusterJ34_J35_J36_J37_8" function="internal">
        <lane id=":clusterJ34_J35_J36_J37_8_0" index="0" speed="8.04" length="6.21" shape="192.84,313.37 197.24,313.29 198.84,312.45"/>
    </edge>
    <edge id=":clusterJ34_J35_J36_J37_14" function="internal">
        <lane id=":clusterJ34_J35_J36_J37_14_0" index="0" speed="8.04" length="10.05" shape="198.84,312.45 200.32,311.67 202.09,308.49 202.54,303.77"/>
    </edge>
    <edge id=":clusterJ34_J35_J36_J37_9" function="internal">
        <lane id=":clusterJ34_J35_J36_J37_9_0" index="0" speed="6.16" length="9.06" shape="199.08,303.90 198.81,306.43 197.78,308.12 195.99,308.98 193.45,308.99"/>
    </edge>
    <edge id=":clusterJ34_J35_J36_J37_10" function="internal">
        <lane id=":clusterJ34_J35_J36_J37_10_0" index="0" speed="13.89" length="16.57" shape="199.08,303.90 199.49,307.89 200.14,312.18 200.54,316.44 200.22,320.37"/>
    </edge>
    <edge id=":clusterJ34_J35_J36_J37_11" function="internal">
        <lane id=":clusterJ34_J35_J36_J37_11_0" index="0" speed="9.54" length="5.59" shape="199.08,303.90 200.01,307.95 200.72,309.19"/>
    </edge>
    <edge id=":clusterJ34_J35_J36_J37_15" function="internal">
        <lane id=":clusterJ34_J35_J36_J37_15_0" index="0" speed="9.54" length="11.09" shape="200.72,309.19 202.22,311.80 205.25,314.85 208.65,316.50"/>
    </edge>
    <edge id=":clusterJ48_J49_J50_J51_0" function="internal">
        <lane id=":clusterJ48_J49_J50_J51_0_0" index="0" speed="6.19" length="9.05" shape="-49.64,568.15 -52.17,568.41 -54.04,567.76 -55.27,566.20 -55.85,563.72"/>
    </edge>
    <edge id=":clusterJ48_J49_J50_J51_1" function="internal">
        <lane id=":clusterJ48_J49_J50_J51_1_0" index="0" speed="13.89" length="15.27" shape="-49.64,568.15 -64.45,571.87"/>
    </edge>
    <edge id=":clusterJ48_J49_J50_J51_2" function="internal">
        <lane id=":clusterJ48_J49_J50_J51_2_0" index="0" speed="8.61" length="4.27" shape="-49.64,568.15 -53.42,569.67 -53.56,569.80"/>
    </edge>
    <edge id=":clusterJ48_J49_J50_J51_12" function="internal">
        <lane id=":clusterJ48_J49_J50_J51_12_0" index="0" speed="8.61" length="10.81" shape="-53.56,569.80 -55.97,572.05 -57.26,575.26 -57.32,579.31"/>
    </edge>
    <edge id=":clusterJ48_J49_J50_J51_3" function="internal">
        <lane id=":clusterJ48_J49_J50_J51_3_0" index="0" speed="7.23" length="10.31" shape="-54.10,578.91 -54.05,576.12 -53.17,573.92 -51.43,572.29 -48.86,571.25"/>
    </edge>
    <edge id=":clusterJ48_J49_J50_J51_4" function="internal">
        <lane id=":clusterJ48_J49_J50_J51_4_0" index="0" speed="13.89" length="15.28" shape="-54.10,578.91 -55.85,563.72"/>
    </edge>
    <edge id=":clusterJ48_J49_J50_J51_5" function="internal">
        <lane id=":clusterJ48_J49_J50_J51_5_0" index="0" speed="7.80" length="4.09" shape="-54.10,578.91 -55.18,574.96"/>
    </edge>
    <edge id=":clusterJ48_J49_J50_J51_13" function="internal">
        <lane id=":clusterJ48_J49_J50_J51_13_0" index="0" speed="7.80" length="10.63" shape="-55.18,574.96 -57.26,572.47 -60.35,571.44 -64.45,571.87"/>
    </edge>
    <edge id=":clusterJ48_J49_J50_J51_6" function="internal">
        <lane id=":clusterJ48_J49_J50_J51_6_0" index="0" speed="6.26" length="9.04" shape="-63.68,574.97 -61.17,574.71 -59.27,575.35 -57.99,576.88 -57.32,579.31"/>
    </edge>
    <edge id=":clusterJ48_J49_J50_J51_7" function="internal">
        <lane id=":clusterJ48_J49_J50_J51_7_0" index="0" speed="13.89" length="15.27" shape="-63.68,574.97 -48.86,571.25"/>
    </edge>
    <edge id=":clusterJ48_J49_J50_J51_8" function="internal">
        <lane id=":clusterJ48_J49_J50_J51_8_0" index="0" speed="8.76" length="4.20" shape="-63.68,574.97 -59.96,573.46 -59.82,573.33"/>
    </edge>
    <edge id=":clusterJ48_J49_J50_J51_14" function="internal">
        <lane id=":clusterJ48_J49_J50_J51_14_0" index="0" speed="8.76" length="10.93" shape="-59.82,573.33 -57.41,571.08 -56.04,567.83 -55.85,563.72"/>
    </edge>
    <edge id=":clusterJ48_J49_J50_J51_9" function="internal">
        <lane id=":clusterJ48_J49_J50_J51_9_0" index="0" speed="7.47" length="10.73" shape="-58.78,563.98 -58.94,566.85 -59.93,569.11 -61.77,570.79 -64.45,571.87"/>
    </edge>
    <edge id=":clusterJ48_J49_J50_J51_10" function="internal">
        <lane id=":clusterJ48_J49_J50_J51_10_0" index="0" speed="13.89" length="15.40" shape="-58.78,563.98 -57.32,579.31"/>
    </edge>
    <edge id=":clusterJ48_J49_J50_J51_11" function="internal">
        <lane id=":clusterJ48_J49_J50_J51_11_0" index="0" speed="7.69" length="3.97" shape="-58.78,563.98 -57.90,567.85"/>
    </edge>
    <edge id=":clusterJ48_J49_J50_J51_15" function="internal">
        <lane id=":clusterJ48_J49_J50_J51_15_0" index="0" speed="7.69" length="10.64" shape="-57.90,567.85 -57.86,568.02 -55.89,570.58 -52.90,571.65 -48.86,571.25"/>
    </edge>
    <edge id=":clusterJ56_J57_J58_J59_0" function="internal">
        <lane id=":clusterJ56_J57_J58_J59_0_0" index="0" speed="10.45" length="15.98" shape="157.16,509.32 155.81,512.69 153.43,515.45 150.03,517.60 145.61,519.15"/>
    </edge>
    <edge id=":clusterJ56_J57_J58_J59_1" function="internal">
        <lane id=":clusterJ56_J57_J58_J59_1_0" index="0" speed="13.89" length="18.23" shape="157.16,509.32 155.92,513.45 154.37,518.16 153.26,522.86 153.30,526.99"/>
    </edge>
    <edge id=":clusterJ56_J57_J58_J59_2" function="internal">
        <lane id=":clusterJ56_J57_J58_J59_2_0" index="0" speed="6.47" length="3.98" shape="157.16,509.32 156.81,513.29"/>
    </edge>
    <edge id=":clusterJ56_J57_J58_J59_12" function="internal">
        <lane id=":clusterJ56_J57_J58_J59_12_0" index="0" speed="6.47" length="9.75" shape="156.81,513.29 158.01,515.36 160.75,515.54 165.03,513.83"/>
    </edge>
    <edge id=":clusterJ56_J57_J58_J59_3" function="internal">
        <lane id=":clusterJ56_J57_J58_J59_3_0" index="0" speed="5.55" length="9.69" shape="164.88,513.56 162.00,514.69 160.18,514.46 159.41,512.86 159.70,509.89"/>
    </edge>
    <edge id=":clusterJ56_J57_J58_J59_4" function="internal">
        <lane id=":clusterJ56_J57_J58_J59_4_0" index="0" speed="13.89" length="20.11" shape="164.88,513.56 160.69,515.25 155.41,516.78 150.04,518.09 145.61,519.15"/>
    </edge>
    <edge id=":clusterJ56_J57_J58_J59_5" function="internal">
        <lane id=":clusterJ56_J57_J58_J59_5_0" index="0" speed="10.13" length="8.45" shape="164.88,513.56 159.24,517.02 157.87,518.23"/>
    </edge>
    <edge id=":clusterJ56_J57_J58_J59_13" function="internal">
        <lane id=":clusterJ56_J57_J58_J59_13_0" index="0" speed="10.13" length="10.40" shape="157.87,518.23 155.42,520.41 153.45,523.73 153.30,526.99"/>
    </edge>
    <edge id=":clusterJ56_J57_J58_J59_6" function="internal">
        <lane id=":clusterJ56_J57_J58_J59_6_0" index="0" speed="8.34" length="12.18" shape="162.20,524.84 161.71,520.93 162.02,517.79 163.12,515.43 165.03,513.83"/>
    </edge>
    <edge id=":clusterJ56_J57_J58_J59_7" function="internal">
        <lane id=":clusterJ56_J57_J58_J59_7_0" index="0" speed="13.89" length="15.29" shape="162.20,524.84 161.23,521.12 160.16,517.36 159.48,513.59 159.70,509.89"/>
    </edge>
    <edge id=":clusterJ56_J57_J58_J59_8" function="internal">
        <lane id=":clusterJ56_J57_J58_J59_8_0" index="0" speed="9.24" length="8.62" shape="162.20,524.84 160.44,520.97 157.08,518.73 156.75,518.69"/>
    </edge>
    <edge id=":clusterJ56_J57_J58_J59_14" function="internal">
        <lane id=":clusterJ56_J57_J58_J59_14_0" index="0" speed="9.24" length="11.26" shape="156.75,518.69 152.14,518.12 145.61,519.15"/>
    </edge>
    <edge id=":clusterJ56_J57_J58_J59_9" function="internal">
        <lane id=":clusterJ56_J57_J58_J59_9_0" index="0" speed="6.66" length="9.58" shape="146.38,522.24 148.86,522.03 150.84,522.74 152.32,524.40 153.30,526.99"/>
    </edge>
    <edge id=":clusterJ56_J57_J58_J59_10" function="internal">
        <lane id=":clusterJ56_J57_J58_J59_10_0" index="0" speed="13.89" length="20.48" shape="146.38,522.24 150.72,520.74 155.86,518.45 160.93,515.96 165.03,513.83"/>
    </edge>
    <edge id=":clusterJ56_J57_J58_J59_11" function="internal">
        <lane id=":clusterJ56_J57_J58_J59_11_0" index="0" speed="11.38" length="5.52" shape="146.38,522.24 151.41,520.42 151.55,520.32"/>
    </edge>
    <edge id=":clusterJ56_J57_J58_J59_15" function="internal">
        <lane id=":clusterJ56_J57_J58_J59_15_0" index="0" speed="11.38" length="13.66" shape="151.55,520.32 155.30,517.75 158.06,514.24 159.70,509.89"/>
    </edge>
    <edge id=":clusterJ60_J61_J62_J63_0" function="internal">
        <lane id=":clusterJ60_J61_J62_J63_0_0" index="0" speed="13.89" length="22.73" shape="455.51,358.72 450.83,360.21 444.48,361.15 438.04,361.44 433.10,361.01"/>
    </edge>
    <edge id=":clusterJ60_J61_J62_J63_1" function="internal">
        <lane id=":clusterJ60_J61_J62_J63_1_0" index="0" speed="13.89" length="25.48" shape="455.51,358.72 433.01,370.68"/>
    </edge>
    <edge id=":clusterJ60_J61_J62_J63_2" function="internal">
        <lane id=":clusterJ60_J61_J62_J63_2_0" index="0" speed="7.59" length="8.37" shape="455.51,358.72 449.76,362.54 449.05,363.82"/>
    </edge>
    <edge id=":clusterJ60_J61_J62_J63_12" function="internal">
        <lane id=":clusterJ60_J61_J62_J63_12_0" index="0" speed="7.59" length="12.26" shape="449.05,363.82 447.91,365.87 449.97,368.71 455.94,371.05"/>
    </edge>
    <edge id=":clusterJ60_J61_J62_J63_3" function="internal">
        <lane id=":clusterJ60_J61_J62_J63_3_0" index="0" speed="5.46" length="9.88" shape="457.15,366.47 454.17,365.31 453.07,363.95 453.85,362.38 456.50,360.61"/>
    </edge>
    <edge id=":clusterJ60_J61_J62_J63_4" function="internal">
        <lane id=":clusterJ60_J61_J62_J63_4_0" index="0" speed="13.89" length="24.65" shape="457.15,366.47 433.10,361.01"/>
    </edge>
    <edge id=":clusterJ60_J61_J62_J63_5" function="internal">
        <lane id=":clusterJ60_J61_J62_J63_5_0" index="0" speed="13.89" length="8.30" shape="457.15,366.47 451.96,366.25 448.88,366.67"/>
    </edge>
    <edge id=":clusterJ60_J61_J62_J63_13" function="internal">
        <lane id=":clusterJ60_J61_J62_J63_13_0" index="0" speed="13.89" length="16.42" shape="448.88,366.67 444.92,367.21 437.96,368.85 433.01,370.68"/>
    </edge>
    <edge id=":clusterJ60_J61_J62_J63_6" function="internal">
        <lane id=":clusterJ60_J61_J62_J63_6_0" index="0" speed="13.89" length="22.28" shape="433.93,372.41 438.56,371.03 444.78,370.38 451.08,370.40 455.94,371.05"/>
    </edge>
    <edge id=":clusterJ60_J61_J62_J63_7" function="internal">
        <lane id=":clusterJ60_J61_J62_J63_7_0" index="0" speed="13.89" length="25.47" shape="433.93,372.41 456.50,360.61"/>
    </edge>
    <edge id=":clusterJ60_J61_J62_J63_8" function="internal">
        <lane id=":clusterJ60_J61_J62_J63_8_0" index="0" speed="7.39" length="8.01" shape="433.93,372.41 439.51,368.74 440.15,367.57"/>
    </edge>
    <edge id=":clusterJ60_J61_J62_J63_14" function="internal">
        <lane id=":clusterJ60_J61_J62_J63_14_0" index="0" speed="7.39" length="11.90" shape="440.15,367.57 441.23,365.61 439.09,363.04 433.10,361.01"/>
    </edge>
    <edge id=":clusterJ60_J61_J62_J63_9" function="internal">
        <lane id=":clusterJ60_J61_J62_J63_9_0" index="0" speed="5.45" length="10.03" shape="432.23,364.98 435.34,366.00 436.50,367.29 435.73,368.85 433.01,370.68"/>
    </edge>
    <edge id=":clusterJ60_J61_J62_J63_10" function="internal">
        <lane id=":clusterJ60_J61_J62_J63_10_0" index="0" speed="13.89" length="24.47" shape="432.23,364.98 455.94,371.05"/>
    </edge>
    <edge id=":clusterJ60_J61_J62_J63_11" function="internal">
        <lane id=":clusterJ60_J61_J62_J63_11_0" index="0" speed="13.89" length="6.64" shape="432.23,364.98 437.46,365.07 438.85,364.87"/>
    </edge>
    <edge id=":clusterJ60_J61_J62_J63_15" function="internal">
        <lane id=":clusterJ60_J61_J62_J63_15_0" index="0" speed="13.89" length="18.21" shape="438.85,364.87 444.53,364.06 451.52,362.42 456.50,360.61"/>
    </edge>
    <edge id=":clusterJ68_J69_J70_J71_0" function="internal">
        <lane id=":clusterJ68_J69_J70_J71_0_0" index="0" speed="6.49" length="9.04" shape="-29.33,735.49 -31.82,735.46 -33.69,734.64 -34.94,733.03 -35.59,730.64"/>
    </edge>
    <edge id=":clusterJ68_J69_J70_J71_1" function="internal">
        <lane id=":clusterJ68_J69_J70_J71_1_0" index="0" speed="13.89" length="14.05" shape="-29.33,735.49 -43.17,737.95"/>
    </edge>
    <edge id=":clusterJ68_J69_J70_J71_2" function="internal">
        <lane id=":clusterJ68_J69_J70_J71_2_0" index="0" speed="8.08" length="4.53" shape="-29.33,735.49 -32.79,736.54 -33.46,737.17"/>
    </edge>
    <edge id=":clusterJ68_J69_J70_J71_12" function="internal">
        <lane id=":clusterJ68_J69_J70_J71_12_0" index="0" speed="8.08" length="9.87" shape="-33.46,737.17 -35.09,738.67 -36.23,741.87 -36.22,746.13"/>
    </edge>
    <edge id=":clusterJ68_J69_J70_J71_3" function="internal">
        <lane id=":clusterJ68_J69_J70_J71_3_0" index="0" speed="6.70" length="9.59" shape="-33.72,745.82 -33.71,743.10 -32.90,741.04 -31.28,739.65 -28.86,738.93"/>
    </edge>
    <edge id=":clusterJ68_J69_J70_J71_4" function="internal">
        <lane id=":clusterJ68_J69_J70_J71_4_0" index="0" speed="13.89" length="15.30" shape="-33.72,745.82 -35.59,730.64"/>
    </edge>
    <edge id=":clusterJ68_J69_J70_J71_5" function="internal">
        <lane id=":clusterJ68_J69_J70_J71_5_0" index="0" speed="7.85" length="0.21" shape="-33.72,745.82 -33.77,745.61"/>
    </edge>
    <edge id=":clusterJ68_J69_J70_J71_13" function="internal">
        <lane id=":clusterJ68_J69_J70_J71_13_0" index="0" speed="7.85" length="13.96" shape="-33.77,745.61 -34.76,741.81 -36.69,739.16 -39.49,737.88 -43.17,737.95"/>
    </edge>
    <edge id=":clusterJ68_J69_J70_J71_6" function="internal">
        <lane id=":clusterJ68_J69_J70_J71_6_0" index="0" speed="6.38" length="9.04" shape="-42.52,741.50 -40.02,741.40 -38.14,742.14 -36.87,743.72 -36.22,746.13"/>
    </edge>
    <edge id=":clusterJ68_J69_J70_J71_7" function="internal">
        <lane id=":clusterJ68_J69_J70_J71_7_0" index="0" speed="13.89" length="13.89" shape="-42.52,741.50 -28.86,738.93"/>
    </edge>
    <edge id=":clusterJ68_J69_J70_J71_8" function="internal">
        <lane id=":clusterJ68_J69_J70_J71_8_0" index="0" speed="8.26" length="4.46" shape="-42.52,741.50 -39.06,740.27 -38.49,739.72"/>
    </edge>
    <edge id=":clusterJ68_J69_J70_J71_14" function="internal">
        <lane id=":clusterJ68_J69_J70_J71_14_0" index="0" speed="8.26" length="10.02" shape="-38.49,739.72 -36.75,738.04 -35.59,734.84 -35.59,730.64"/>
    </edge>
    <edge id=":clusterJ68_J69_J70_J71_9" function="internal">
        <lane id=":clusterJ68_J69_J70_J71_9_0" index="0" speed="6.87" length="9.77" shape="-38.07,730.94 -38.11,733.61 -38.97,735.66 -40.66,737.11 -43.17,737.95"/>
    </edge>
    <edge id=":clusterJ68_J69_J70_J71_10" function="internal">
        <lane id=":clusterJ68_J69_J70_J71_10_0" index="0" speed="13.89" length="15.30" shape="-38.07,730.94 -36.22,746.13"/>
    </edge>
    <edge id=":clusterJ68_J69_J70_J71_11" function="internal">
        <lane id=":clusterJ68_J69_J70_J71_11_0" index="0" speed="7.90" length="6.83" shape="-38.07,730.94 -37.06,734.85 -35.45,737.13"/>
    </edge>
    <edge id=":clusterJ68_J69_J70_J71_15" function="internal">
        <lane id=":clusterJ68_J69_J70_J71_15_0" index="0" speed="7.90" length="7.09" shape="-35.45,737.13 -35.19,737.48 -32.46,738.84 -28.86,738.93"/>
    </edge>
    <edge id=":clusterJ72_J73_J74_J75_0" function="internal">
        <lane id=":clusterJ72_J73_J74_J75_0_0" index="0" speed="6.66" length="9.29" shape="203.74,696.03 201.14,696.14 199.12,695.44 197.69,693.93 196.83,691.61"/>
    </edge>
    <edge id=":clusterJ72_J73_J74_J75_1" function="internal">
        <lane id=":clusterJ72_J73_J74_J75_1_0" index="0" speed="13.89" length="15.67" shape="203.74,696.03 200.21,697.43 196.88,699.71 193.55,702.00 190.01,703.37"/>
    </edge>
    <edge id=":clusterJ72_J73_J74_J75_2" function="internal">
        <lane id=":clusterJ72_J73_J74_J75_2_0" index="0" speed="8.79" length="4.63" shape="203.74,696.03 200.60,697.94 200.10,698.75"/>
    </edge>
    <edge id=":clusterJ72_J73_J74_J75_12" function="internal">
        <lane id=":clusterJ72_J73_J74_J75_12_0" index="0" speed="8.79" length="12.82" shape="200.10,698.75 198.25,701.75 196.95,706.40 196.95,710.86"/>
    </edge>
    <edge id=":clusterJ72_J73_J74_J75_3" function="internal">
        <lane id=":clusterJ72_J73_J74_J75_3_0" index="0" speed="7.74" length="13.23" shape="200.59,710.19 200.12,705.60 200.57,702.19 201.95,699.94 204.24,698.87"/>
    </edge>
    <edge id=":clusterJ72_J73_J74_J75_4" function="internal">
        <lane id=":clusterJ72_J73_J74_J75_4_0" index="0" speed="13.89" length="18.95" shape="200.59,710.19 196.83,691.61"/>
    </edge>
    <edge id=":clusterJ72_J73_J74_J75_5" function="internal">
        <lane id=":clusterJ72_J73_J74_J75_5_0" index="0" speed="8.06" length="4.95" shape="200.59,710.19 199.36,706.63 198.55,705.77"/>
    </edge>
    <edge id=":clusterJ72_J73_J74_J75_13" function="internal">
        <lane id=":clusterJ72_J73_J74_J75_13_0" index="0" speed="8.06" length="9.36" shape="198.55,705.77 197.19,704.31 194.08,703.22 190.01,703.37"/>
    </edge>
    <edge id=":clusterJ72_J73_J74_J75_6" function="internal">
        <lane id=":clusterJ72_J73_J74_J75_6_0" index="0" speed="6.53" length="9.03" shape="190.45,706.32 192.91,706.25 194.82,706.98 196.17,708.52 196.95,710.86"/>
    </edge>
    <edge id=":clusterJ72_J73_J74_J75_7" function="internal">
        <lane id=":clusterJ72_J73_J74_J75_7_0" index="0" speed="13.89" length="15.78" shape="190.45,706.32 193.99,704.92 197.35,702.60 200.70,700.28 204.24,698.87"/>
    </edge>
    <edge id=":clusterJ72_J73_J74_J75_8" function="internal">
        <lane id=":clusterJ72_J73_J74_J75_8_0" index="0" speed="8.65" length="4.63" shape="190.45,706.32 193.52,704.43 194.03,703.55"/>
    </edge>
    <edge id=":clusterJ72_J73_J74_J75_14" function="internal">
        <lane id=":clusterJ72_J73_J74_J75_14_0" index="0" speed="8.65" length="12.56" shape="194.03,703.55 195.75,700.64 196.93,696.01 196.83,691.61"/>
    </edge>
    <edge id=":clusterJ72_J73_J74_J75_9" function="internal">
        <lane id=":clusterJ72_J73_J74_J75_9_0" index="0" speed="7.49" length="12.96" shape="193.26,692.36 193.97,696.82 193.67,700.14 192.35,702.32 190.01,703.37"/>
    </edge>
    <edge id=":clusterJ72_J73_J74_J75_10" function="internal">
        <lane id=":clusterJ72_J73_J74_J75_10_0" index="0" speed="13.89" length="18.87" shape="193.26,692.36 196.95,710.86"/>
    </edge>
    <edge id=":clusterJ72_J73_J74_J75_11" function="internal">
        <lane id=":clusterJ72_J73_J74_J75_11_0" index="0" speed="8.23" length="4.40" shape="193.26,692.36 194.68,695.81 195.17,696.27"/>
    </edge>
    <edge id=":clusterJ72_J73_J74_J75_15" function="internal">
        <lane id=":clusterJ72_J73_J74_J75_15_0" index="0" speed="8.23" length="9.96" shape="195.17,696.27 196.99,698.04 200.17,699.06 204.24,698.87"/>
    </edge>

    <edge id="-E1" from="J5" to="clusterJ60_J61_J62_J63" priority="-1" shape="777.37,454.39 453.97,367.27">
        <lane id="-E1_0" index="0" speed="13.89" length="332.07" shape="777.79,452.85 457.15,366.47"/>
    </edge>
    <edge id="-E1.341" from="clusterJ60_J61_J62_J63" to="clusterJ34_J35_J36_J37" priority="-1" shape="453.97,367.27 205.94,312.34">
        <lane id="-E1.341_0" index="0" speed="13.89" length="228.79" shape="433.10,361.01 209.73,311.54"/>
    </edge>
    <edge id="-E1.42" from="clusterJ28_J29_clusterJ0_J17_J19" to="J4" priority="-1" shape="-75.04,273.36 -176.02,273.00">
        <lane id="-E1.42_0" index="0" speed="13.89" length="86.42" shape="-89.59,271.71 -176.01,271.40"/>
    </edge>
    <edge id="-E1.92" from="clusterJ34_J35_J36_J37" to="clusterJ28_J29_clusterJ0_J17_J19" priority="-1" shape="205.94,312.34 -75.04,273.36">
        <lane id="-E1.92_0" index="0" speed="13.89" length="270.50" shape="193.45,308.99 -74.49,271.82"/>
    </edge>
    <edge id="-E5" from="J26" to="clusterJ28_J29_clusterJ0_J17_J19" priority="-1" shape="-84.54,95.36 -82.39,269.68">
        <lane id="-E5_0" index="0" speed="13.89" length="170.22" shape="-86.14,95.38 -84.04,265.59"/>
    </edge>
    <edge id="-E5.367" from="clusterJ48_J49_J50_J51" to="clusterJ68_J69_J70_J71" priority="-1" shape="-56.20,575.40 -36.77,728.48">
        <lane id="-E5.367_0" index="0" speed="13.89" length="152.85" shape="-57.32,579.31 -38.07,730.94"/>
    </edge>
    <edge id="-E5.61" from="clusterJ28_J29_clusterJ0_J17_J19" to="clusterJ48_J49_J50_J51" priority="-1" shape="-82.39,269.68 -56.20,575.40">
        <lane id="-E5.61_0" index="0" speed="13.89" length="283.44" shape="-82.98,281.57 -58.78,563.98"/>
    </edge>
    <edge id="-E5.786" from="clusterJ68_J69_J70_J71" to="J25" priority="-1" shape="-36.77,728.48 -22.30,846.66">
        <lane id="-E5.786_0" index="0" speed="13.89" length="101.48" shape="-36.22,746.13 -23.89,846.85"/>
    </edge>
    <edge id="-E6" from="J31" to="clusterJ34_J35_J36_J37" priority="-1" shape="192.88,88.08 201.36,322.56">
        <lane id="-E6_0" index="0" speed="13.89" length="215.90" shape="191.28,88.14 199.08,303.90"/>
    </edge>
    <edge id="-E6.196" from="clusterJ34_J35_J36_J37" to="clusterJ56_J57_J58_J59" priority="-1" shape="201.36,322.56 154.86,526.61">
        <lane id="-E6.196_0" index="0" speed="13.89" length="193.80" shape="200.22,320.37 157.16,509.32"/>
    </edge>
    <edge id="-E6.405" from="clusterJ56_J57_J58_J59" to="clusterJ72_J73_J74_J75" priority="-1" shape="154.86,526.61 196.00,696.87">
        <lane id="-E6.405_0" index="0" speed="13.89" length="170.13" shape="153.30,526.99 193.26,692.36"/>
    </edge>
    <edge id="-E6.838" from="clusterJ72_J73_J74_J75" to="J30" priority="-1" shape="196.00,696.87 220.15,827.86">
        <lane id="-E6.838_0" index="0" speed="13.89" length="119.26" shape="196.95,710.86 218.58,828.15"/>
    </edge>